instances/data_GOC/Phase_0_RTS96/scenario_90/powersystem.raw
 0,  100.000000
rts96_spring_wday.raw / File written by to_psse.gms
5 / 19 / 2015
101, ' 101 ',138,2,1,1,1,1.00,0.00,1.1,0.9,1.1,0.9
102, ' 102 ',138,2,1,1,1,1.00,0.00,1.1,0.9,1.1,0.9
103, ' 103 ',138,1,1,1,1,1.00,0.00,1.1,0.9,1.1,0.9
104, ' 104 ',138,1,1,1,1,1.00,0.00,1.1,0.9,1.1,0.9
105, ' 105 ',138,1,1,1,1,1.00,0.00,1.1,0.9,1.1,0.9
106, ' 106 ',138,1,1,1,1,1.00,0.00,1.1,0.9,1.1,0.9
107, ' 107 ',138,2,1,1,1,1.00,0.00,1.1,0.9,1.1,0.9
108, ' 108 ',138,1,1,1,1,1.00,0.00,1.1,0.9,1.1,0.9
109, ' 109 ',138,1,1,1,1,1.00,0.00,1.1,0.9,1.1,0.9
110, ' 110 ',138,1,1,1,1,1.00,0.00,1.1,0.9,1.1,0.9
111, ' 111 ',230,1,1,1,1,1.00,0.00,1.1,0.9,1.1,0.9
112, ' 112 ',230,1,1,1,1,1.00,0.00,1.1,0.9,1.1,0.9
113, ' 113 ',230,3,1,1,1,1.00,0.00,1.1,0.9,1.1,0.9
114, ' 114 ',230,2,1,1,1,1.00,0.00,1.1,0.9,1.1,0.9
115, ' 115 ',230,2,1,1,1,1.00,0.00,1.1,0.9,1.1,0.9
116, ' 116 ',230,2,1,1,1,1.00,0.00,1.1,0.9,1.1,0.9
117, ' 117 ',230,1,1,1,1,1.00,0.00,1.1,0.9,1.1,0.9
118, ' 118 ',230,2,1,1,1,1.00,0.00,1.1,0.9,1.1,0.9
119, ' 119 ',230,1,1,1,1,1.00,0.00,1.1,0.9,1.1,0.9
120, ' 120 ',230,1,1,1,1,1.00,0.00,1.1,0.9,1.1,0.9
121, ' 121 ',230,2,1,1,1,1.00,0.00,1.1,0.9,1.1,0.9
122, ' 122 ',230,2,1,1,1,1.00,0.00,1.1,0.9,1.1,0.9
123, ' 123 ',230,2,1,1,1,1.00,0.00,1.1,0.9,1.1,0.9
124, ' 124 ',230,1,1,1,1,1.00,0.00,1.1,0.9,1.1,0.9
201, ' 201 ',138,2,1,1,1,1.00,0.00,1.1,0.9,1.1,0.9
202, ' 202 ',138,2,1,1,1,1.00,0.00,1.1,0.9,1.1,0.9
203, ' 203 ',138,1,1,1,1,1.00,0.00,1.1,0.9,1.1,0.9
204, ' 204 ',138,1,1,1,1,1.00,0.00,1.1,0.9,1.1,0.9
205, ' 205 ',138,1,1,1,1,1.00,0.00,1.1,0.9,1.1,0.9
206, ' 206 ',138,1,1,1,1,1.00,0.00,1.1,0.9,1.1,0.9
207, ' 207 ',138,2,1,1,1,1.00,0.00,1.1,0.9,1.1,0.9
208, ' 208 ',138,1,1,1,1,1.00,0.00,1.1,0.9,1.1,0.9
209, ' 209 ',138,1,1,1,1,1.00,0.00,1.1,0.9,1.1,0.9
210, ' 210 ',138,1,1,1,1,1.00,0.00,1.1,0.9,1.1,0.9
211, ' 211 ',230,1,1,1,1,1.00,0.00,1.1,0.9,1.1,0.9
212, ' 212 ',230,1,1,1,1,1.00,0.00,1.1,0.9,1.1,0.9
213, ' 213 ',230,2,1,1,1,1.00,0.00,1.1,0.9,1.1,0.9
214, ' 214 ',230,2,1,1,1,1.00,0.00,1.1,0.9,1.1,0.9
215, ' 215 ',230,2,1,1,1,1.00,0.00,1.1,0.9,1.1,0.9
216, ' 216 ',230,2,1,1,1,1.00,0.00,1.1,0.9,1.1,0.9
217, ' 217 ',230,1,1,1,1,1.00,0.00,1.1,0.9,1.1,0.9
218, ' 218 ',230,2,1,1,1,1.00,0.00,1.1,0.9,1.1,0.9
219, ' 219 ',230,1,1,1,1,1.00,0.00,1.1,0.9,1.1,0.9
220, ' 220 ',230,1,1,1,1,1.00,0.00,1.1,0.9,1.1,0.9
221, ' 221 ',230,2,1,1,1,1.00,0.00,1.1,0.9,1.1,0.9
222, ' 222 ',230,2,1,1,1,1.00,0.00,1.1,0.9,1.1,0.9
223, ' 223 ',230,2,1,1,1,1.00,0.00,1.1,0.9,1.1,0.9
224, ' 224 ',230,1,1,1,1,1.00,0.00,1.1,0.9,1.1,0.9
301, ' 301 ',138,2,1,1,1,1.00,0.00,1.1,0.9,1.1,0.9
302, ' 302 ',138,2,1,1,1,1.00,0.00,1.1,0.9,1.1,0.9
303, ' 303 ',138,1,1,1,1,1.00,0.00,1.1,0.9,1.1,0.9
304, ' 304 ',138,1,1,1,1,1.00,0.00,1.1,0.9,1.1,0.9
305, ' 305 ',138,1,1,1,1,1.00,0.00,1.1,0.9,1.1,0.9
306, ' 306 ',138,1,1,1,1,1.00,0.00,1.1,0.9,1.1,0.9
307, ' 307 ',138,2,1,1,1,1.00,0.00,1.1,0.9,1.1,0.9
308, ' 308 ',138,1,1,1,1,1.00,0.00,1.1,0.9,1.1,0.9
309, ' 309 ',138,1,1,1,1,1.00,0.00,1.1,0.9,1.1,0.9
310, ' 310 ',138,1,1,1,1,1.00,0.00,1.1,0.9,1.1,0.9
311, ' 311 ',230,1,1,1,1,1.00,0.00,1.1,0.9,1.1,0.9
312, ' 312 ',230,1,1,1,1,1.00,0.00,1.1,0.9,1.1,0.9
313, ' 313 ',230,2,1,1,1,1.00,0.00,1.1,0.9,1.1,0.9
314, ' 314 ',230,2,1,1,1,1.00,0.00,1.1,0.9,1.1,0.9
315, ' 315 ',230,2,1,1,1,1.00,0.00,1.1,0.9,1.1,0.9
316, ' 316 ',230,2,1,1,1,1.00,0.00,1.1,0.9,1.1,0.9
317, ' 317 ',230,1,1,1,1,1.00,0.00,1.1,0.9,1.1,0.9
318, ' 318 ',230,2,1,1,1,1.00,0.00,1.1,0.9,1.1,0.9
319, ' 319 ',230,1,1,1,1,1.00,0.00,1.1,0.9,1.1,0.9
320, ' 320 ',230,1,1,1,1,1.00,0.00,1.1,0.9,1.1,0.9
321, ' 321 ',230,2,1,1,1,1.00,0.00,1.1,0.9,1.1,0.9
322, ' 322 ',230,2,1,1,1,1.00,0.00,1.1,0.9,1.1,0.9
323, ' 323 ',230,2,1,1,1,1.00,0.00,1.1,0.9,1.1,0.9
324, ' 324 ',230,1,1,1,1,1.00,0.00,1.1,0.9,1.1,0.9
325, ' 325 ',230,1,1,1,1,1.00,0.00,1.1,0.9,1.1,0.9
0 / END OF BUS DATA, BEGIN LOAD DATA
101, '1 ',1,11,11,66.34804689192194,12.23166212331634,0.0,0.0,0.0,0.0,1,1,0
102, '1 ',1,11,12,59.0013113782018,16.434099257902243,0.0,0.0,0.0,0.0,1,1,0
103, '1 ',1,11,11,123.02155684287752,26.330213112534675,0.0,0.0,0.0,0.0,1,1,0
104, '1 ',1,11,11,36.82452236415138,9.224332379974891,0.0,0.0,0.0,0.0,1,1,0
105, '1 ',1,11,11,63.48571143237013,9.226886073343735,0.0,0.0,0.0,0.0,1,1,0
106, '1 ',1,11,12,89.90120827816018,25.08155640627779,0.0,0.0,0.0,0.0,1,1,0
107, '1 ',1,11,12,79.95731762158103,15.653306393469682,0.0,0.0,0.0,0.0,1,1,0
108, '1 ',1,11,12,133.35186342389017,17.593581939273978,0.0,0.0,0.0,0.0,1,1,0
109, '1 ',1,11,13,96.80026100987219,30.281259905282784,0.0,0.0,0.0,0.0,1,1,0
110, '1 ',1,11,13,99.07046362733398,21.462793631276114,0.0,0.0,0.0,0.0,1,1,0
111, '1 ',1,11,13,0.0,0.0,0.0,0.0,0.0,0.0,1,1,0
112, '1 ',1,11,13,0.0,0.0,0.0,0.0,0.0,0.0,1,1,0
113, '1 ',1,12,14,227.00807621359152,33.23835980339432,0.0,0.0,0.0,0.0,1,1,0
114, '1 ',1,12,16,138.8098251212217,25.050163584809052,0.0,0.0,0.0,0.0,1,1,0
115, '1 ',1,12,16,184.16148098413186,37.7817078700751,0.0,0.0,0.0,0.0,1,1,0
116, '1 ',1,12,16,57.34611510906368,14.06875686741527,0.0,0.0,0.0,0.0,1,1,0
117, '1 ',1,12,17,0.0,0.0,0.0,0.0,0.0,0.0,1,1,0
118, '1 ',1,12,17,240.08549478899164,35.04359653496202,0.0,0.0,0.0,0.0,1,1,0
119, '1 ',1,12,15,138.76958597209216,21.873332818752896,0.0,0.0,0.0,0.0,1,1,0
120, '1 ',1,12,15,66.94692435421943,13.224230950546637,0.0,0.0,0.0,0.0,1,1,0
121, '1 ',1,12,17,0.0,0.0,0.0,0.0,0.0,0.0,1,1,0
122, '1 ',1,12,17,0.0,0.0,0.0,0.0,0.0,0.0,1,1,0
123, '1 ',1,12,15,0.0,0.0,0.0,0.0,0.0,0.0,1,1,0
124, '1 ',1,12,16,0.0,0.0,0.0,0.0,0.0,0.0,1,1,0
201, '1 ',1,21,21,66.20830081228371,15.991551960083005,0.0,0.0,0.0,0.0,1,1,0
202, '1 ',1,21,22,47.328150593099835,14.265571660724468,0.0,0.0,0.0,0.0,1,1,0
203, '1 ',1,21,21,109.13178886720351,30.30600124054779,0.0,0.0,0.0,0.0,1,1,0
204, '1 ',1,21,21,38.32290889195958,12.900719341500896,0.0,0.0,0.0,0.0,1,1,0
205, '1 ',1,21,21,35.12618837268669,12.484577233596985,0.0,0.0,0.0,0.0,1,1,0
206, '1 ',1,21,22,98.15215467991793,25.124942740657367,0.0,0.0,0.0,0.0,1,1,0
207, '1 ',1,21,22,103.6913968802488,21.320612794464683,0.0,0.0,0.0,0.0,1,1,0
208, '1 ',1,21,22,125.79851242299335,30.61330281576351,0.0,0.0,0.0,0.0,1,1,0
209, '1 ',1,21,23,103.00116860140348,30.170757493307814,0.0,0.0,0.0,0.0,1,1,0
210, '1 ',1,21,23,100.90825144951161,31.959650877580046,0.0,0.0,0.0,0.0,1,1,0
211, '1 ',1,21,23,0.0,0.0,0.0,0.0,0.0,0.0,1,1,0
212, '1 ',1,21,23,0.0,0.0,0.0,0.0,0.0,0.0,1,1,0
213, '1 ',1,22,24,157.74858521616832,30.65583375344798,0.0,0.0,0.0,0.0,1,1,0
214, '1 ',1,22,26,130.2376337370568,20.0569505304324,0.0,0.0,0.0,0.0,1,1,0
215, '1 ',1,22,26,238.74648104714532,36.12849095034599,0.0,0.0,0.0,0.0,1,1,0
216, '1 ',1,22,26,66.5607029632246,12.606083860776387,0.0,0.0,0.0,0.0,1,1,0
217, '1 ',1,22,27,0.0,0.0,0.0,0.0,0.0,0.0,1,1,0
218, '1 ',1,22,27,242.86330349845707,45.92306475359537,0.0,0.0,0.0,0.0,1,1,0
219, '1 ',1,22,25,90.87514335538927,26.272126406124183,0.0,0.0,0.0,0.0,1,1,0
220, '1 ',1,22,25,63.37391401387452,18.785892216327323,0.0,0.0,0.0,0.0,1,1,0
221, '1 ',1,22,27,0.0,0.0,0.0,0.0,0.0,0.0,1,1,0
222, '1 ',1,22,27,0.0,0.0,0.0,0.0,0.0,0.0,1,1,0
223, '1 ',1,22,25,0.0,0.0,0.0,0.0,0.0,0.0,1,1,0
224, '1 ',1,22,26,0.0,0.0,0.0,0.0,0.0,0.0,1,1,0
301, '1 ',1,31,31,86.48773435544092,15.91248187410459,0.0,0.0,0.0,0.0,1,1,0
302, '1 ',1,31,32,71.21401456129979,17.8420061528245,0.0,0.0,0.0,0.0,1,1,0
303, '1 ',1,31,31,156.52638900274505,18.957178503602183,0.0,0.0,0.0,0.0,1,1,0
304, '1 ',1,31,31,64.18839667872246,11.49404577104724,0.0,0.0,0.0,0.0,1,1,0
305, '1 ',1,31,31,58.41283491795282,7.151638277242239,0.0,0.0,0.0,0.0,1,1,0
306, '1 ',1,31,32,115.62383119956851,16.709440496994183,0.0,0.0,0.0,0.0,1,1,0
307, '1 ',1,31,32,108.00163728371844,12.915892451300751,0.0,0.0,0.0,0.0,1,1,0
308, '1 ',1,31,32,119.38195592036693,30.176119976853023,0.0,0.0,0.0,0.0,1,1,0
309, '1 ',1,31,33,151.60800653117826,17.674028238921984,0.0,0.0,0.0,0.0,1,1,0
310, '1 ',1,31,33,104.40774419365775,31.799031278410926,0.0,0.0,0.0,0.0,1,1,0
311, '1 ',1,31,33,0.0,0.0,0.0,0.0,0.0,0.0,1,1,0
312, '1 ',1,31,33,0.0,0.0,0.0,0.0,0.0,0.0,1,1,0
313, '1 ',1,32,34,169.55717322829693,31.392329597634728,0.0,0.0,0.0,0.0,1,1,0
314, '1 ',1,32,36,145.82249958608656,19.629662855029665,0.0,0.0,0.0,0.0,1,1,0
315, '1 ',1,32,36,165.98714809519896,43.80218316714763,0.0,0.0,0.0,0.0,1,1,0
316, '1 ',1,32,36,70.7486577176163,12.64454604475759,0.0,0.0,0.0,0.0,1,1,0
317, '1 ',1,32,37,0.0,0.0,0.0,0.0,0.0,0.0,1,1,0
318, '1 ',1,32,37,285.04399222167723,59.07708692099881,0.0,0.0,0.0,0.0,1,1,0
319, '1 ',1,32,35,90.37747869766973,28.299583885756366,0.0,0.0,0.0,0.0,1,1,0
320, '1 ',1,32,35,102.83462384222744,13.617758252877742,0.0,0.0,0.0,0.0,1,1,0
321, '1 ',1,32,37,0.0,0.0,0.0,0.0,0.0,0.0,1,1,0
322, '1 ',1,32,37,0.0,0.0,0.0,0.0,0.0,0.0,1,1,0
323, '1 ',1,32,35,0.0,0.0,0.0,0.0,0.0,0.0,1,1,0
324, '1 ',1,32,36,0.0,0.0,0.0,0.0,0.0,0.0,1,1,0
325, '1 ',1,32,35,0.0,0.0,0.0,0.0,0.0,0.0,1,1,0
0 / END OF LOAD DATA, BEGIN FIXED SHUNT DATA
0 / END OF FIXED SHUNT DATA, BEGIN GENERATOR DATA
101,1,10,0,9.918785456102341,-0.5950043946504593,1.035,0,24,0,1,0,0,1,1,100,24.593093596398834,21.014168707001957,1,1,0,1
101,2,10,0,9.823089788667858,2.1435646153986463,1.035,0,24,0,1,0,0,1,1,100,21.957691316492856,17.063941321466118,1,1,0,1
101,3,76,14.1,29.043238853104413,-26.746338266879327,1.035,0,89,0,1,0,0,1,1,100,76.13665144704282,25.069985218122603,1,1,0,1
101,4,76,14.1,21.42544856574386,-33.06262933136895,1.035,0,89,0,1,0,0,1,1,100,71.22762639578431,4.480109053067864,1,1,0,1
102,5,10,0,12.439552624709904,0.4038329590111971,1.035,0,24,0,1,0,0,1,1,100,16.828698256984353,12.113530030781405,1,1,0,1
102,6,10,0,7.702452788129448,-4.951123144011945,1.035,0,24,0,1,0,0,1,1,100,22.637962811626494,17.43917113682255,1,1,0,1
102,7,76,7,26.208893438335508,-13.531003512442112,1.035,0,89,0,1,0,0,1,1,100,74.10208682548254,29.384690431021156,1,1,0,1
102,8,76,7,22.796980094164606,-48.66662457794884,1.035,0,89,0,1,0,0,1,1,100,97.32962158154696,47.6199451835081,1,1,0,1
107,9,80,17.2,68.47389565687627,24.88634392619133,1.025,0,118,0,1,0,0,1,1,100,108.82796245161444,41.455507717328146,1,1,0,1
107,10,80,17.2,55.320586938411,-18.890714465640485,1.025,0,118,0,1,0,0,1,1,100,91.90064804628491,2.180496316868812,1,1,0,1
107,11,80,17.2,75.50249546673149,1.1606646878644824,1.025,0,118,0,1,0,0,1,1,100,85.03254484850913,20.07300282944925,1,1,0,1
113,12,95.1,40.7,60.196874093264334,-14.075000837445266,1.02,0,232,0,1,0,0,1,1,100,156.7240063689649,58.14682290953583,1,1,0,1
113,13,95.1,40.7,88.92125417664647,-12.897179871797562,1.02,0,232,0,1,0,0,1,1,100,242.7820247364696,104.82667843051718,1,1,0,1
113,14,95.1,40.7,58.332770589739084,-2.678285837173462,1.02,0,232,0,1,0,0,1,1,100,188.87568259434772,25.38705672274571,1,1,0,1
114,15,0,13.7,182.00918149203062,-16.85548390261826,0.98,0,100,0,1,0,0,1,1,100,0.0,0.0,1,1,0,1
115,16,12,0,4.369757094047963,-0.07226042328402382,1.014,0,14,0,1,0,0,1,1,100,11.154776976071297,10.084918089030504,1,1,0,1
115,17,12,0,6.637483733799308,0.9278166079893708,1.014,0,14,0,1,0,0,1,1,100,9.18902418874204,1.1032701147347677,1,1,0,1
115,18,12,0,7.558923476189376,2.584228901099415,1.014,0,14,0,1,0,0,1,1,100,14.324649702385067,5.215864909663795,1,1,0,1
115,19,12,0,6.74517036890611,-0.13156245360150987,1.014,0,14,0,1,0,0,1,1,100,11.308348363637926,10.210868710763187,1,1,0,1
115,20,12,0,6.7238100240938365,2.227858025953174,1.014,0,14,0,1,0,0,1,1,100,10.640522090904415,10.160819500458825,1,1,0,1
115,21,155,0.05,97.05545357987285,-19.088490404188633,1.014,0,182,0,1,0,0,1,1,100,164.87016227585264,56.247396987350655,1,1,0,1
116,22,155,25.22,71.05692503601313,-46.21952698752284,1.017,0,182,0,1,0,0,1,1,100,166.9732931086328,89.93974588406273,1,1,0,1
118,23,400,137.4,220.0674947258085,-78.1606645300053,1.05,0,471,0,1,0,0,1,1,100,455.73946146294475,215.68334494251758,1,1,0,1
121,24,400,108.2,173.84139914996922,-55.50582057563588,1.05,0,471,0,1,0,0,1,1,100,462.8905064612627,188.87840198818594,1,1,0,1
122,25,50,-4.96,17.848156271129845,-0.36184417139738656,1.05,0,53,0,1,0,0,1,1,100,58.89434667071327,16.526368211489164,1,1,0,1
122,26,50,-4.96,16.17796918824315,-4.147860259097069,1.05,0,53,0,1,0,0,1,1,100,40.261653864290565,32.61070402603758,1,1,0,1
122,27,50,-4.96,19.114140485972165,-12.202656359970572,1.05,0,53,0,1,0,0,1,1,100,60.75391080928967,21.268332134932294,1,1,0,1
122,28,50,-4.96,13.779295884817838,-8.254178405646236,1.05,0,53,0,1,0,0,1,1,100,39.1098011424765,4.537697999822229,1,1,0,1
122,29,50,-4.96,15.367272262275218,-15.7178916009143,1.05,0,53,0,1,0,0,1,1,100,36.04922419646754,33.89992589828189,1,1,0,1
122,30,50,-4.96,18.75056705623865,-0.6497343195602276,1.05,0,53,0,1,0,0,1,1,100,57.65889696078374,16.00949372397735,1,1,0,1
123,31,155,31.79,98.79189188033344,-57.18870870303361,1.05,0,182,0,1,0,0,1,1,100,164.47632564860396,45.87322182126809,1,1,0,1
123,32,155,31.79,57.31615711376071,-91.02839172119275,1.05,0,182,0,1,0,0,1,1,100,170.16557359648868,49.44580103982007,1,1,0,1
123,33,350,71.78,148.97866553859785,-71.60104180453345,1.05,0,412,0,1,0,0,1,1,100,451.03205694584176,228.8763514547609,1,1,0,1
201,34,10,0,10.313182120211422,2.2423201804049313,1.035,0,24,0,1,0,0,1,1,100,22.0790534876287,17.778278886042536,1,1,0,1
201,35,10,0,8.959078691899776,0.08384200232103467,1.035,0,24,0,1,0,0,1,1,100,25.937952743843198,21.82258000886999,1,1,0,1
201,36,76,14.1,25.38323280075565,-28.673315570224077,1.035,0,89,0,1,0,0,1,1,100,84.03556873388588,31.948869490996003,1,1,0,1
201,37,76,14.1,38.333774933125824,-21.44554939307273,1.035,0,89,0,1,0,0,1,1,100,79.97074346281589,32.004676918014894,1,1,0,1
202,38,10,0,12.450079255737364,2.3472738708369434,1.035,0,24,0,1,0,0,1,1,100,23.250540036708117,19.718281909963117,1,1,0,1
202,39,10,0,9.79135176120326,0.9747090772725642,1.035,0,24,0,1,0,0,1,1,100,16.168815702199936,12.220162173155696,1,1,0,1
202,40,76,7,22.98924683779478,-38.75406790431589,1.035,0,89,0,1,0,0,1,1,100,89.85697842147202,32.95218597825618,1,1,0,1
202,41,76,7,31.856654018629342,-30.906546604819596,1.035,0,89,0,1,0,0,1,1,100,95.94514179527759,44.629051303118466,1,1,0,1
207,42,80,17.2,68.74186769127846,17.937395699322224,1.025,0,118,0,1,0,0,1,1,100,102.72314030677082,21.057823150185882,1,1,0,1
207,43,80,17.2,69.74427895434201,26.722388533875353,1.025,0,118,0,1,0,0,1,1,100,117.61481671128422,25.15981350792572,1,1,0,1
207,44,80,17.2,53.047236322425306,-12.816810074262321,1.025,0,118,0,1,0,0,1,1,100,82.93232848867773,19.497904890449703,1,1,0,1
213,45,95.1,40.7,91.6662863381207,13.930519614368677,1.02,0,232,0,1,0,0,1,1,100,139.54205337059682,100.94671198754378,1,1,0,1
213,46,95.1,40.7,96.47266351804137,26.299776423722506,1.02,0,232,0,1,0,0,1,1,100,169.07585349003784,12.268363648159436,1,1,0,1
213,47,95.1,40.7,72.03812547400594,4.706537637859583,1.02,0,232,0,1,0,0,1,1,100,172.1861934045795,21.29213443395443,1,1,0,1
214,48,0,13.68,225.7861372642219,-43.135247335303575,0.98,0,100,0,1,0,0,1,1,100,0.0,0.0,1,1,0,1
215,49,12,0,7.36531383432448,2.492483944259585,1.014,0,14,0,1,0,0,1,1,100,12.624597339704634,3.147511866465212,1,1,0,1
215,50,12,0,5.156118989177049,-0.012321907281874545,1.014,0,14,0,1,0,0,1,1,100,12.377373486198486,3.957745507992806,1,1,0,1
215,51,12,0,5.423006094340234,-2.2046075737103834,1.014,0,14,0,1,0,0,1,1,100,9.8454136563465,8.43446359523378,1,1,0,1
215,52,12,0,6.656075111031533,2.258063984289766,1.014,0,14,0,1,0,0,1,1,100,10.120940546505153,1.3572623053665653,1,1,0,1
215,53,12,0,4.668093605339527,-2.695779651403428,1.014,0,14,0,1,0,0,1,1,100,15.330140173248948,8.105186082534495,1,1,0,1
215,54,155,0.048,101.42803593352437,-45.4050943213515,1.014,0,182,0,1,0,0,1,1,100,181.2975305696018,67.57145852062386,1,1,0,1
216,55,155,25.22,90.94836095348,-62.31556438980624,1.017,0,182,0,1,0,0,1,1,100,191.85980132222178,93.27509752778572,1,1,0,1
218,56,400,137.4,204.8594440147281,-40.65676322905344,1.05,0,471,0,1,0,0,1,1,100,445.5857485719025,212.1174319740385,1,1,0,1
221,57,400,108.2,203.39730639010668,-48.86676258407533,1.05,0,471,0,1,0,0,1,1,100,418.2974363490939,31.279867659322917,1,1,0,1
222,58,50,-4.96,19.474959141761065,-10.586782668251544,1.05,0,53,0,1,0,0,1,1,100,39.94149730075151,15.716405095582765,1,1,0,1
222,59,50,-4.96,17.372167668491603,-11.279186278395354,1.05,0,53,0,1,0,0,1,1,100,51.518235579133034,15.15097499359399,1,1,0,1
222,60,50,-4.96,13.164462985098362,-5.698433229327199,1.05,0,53,0,1,0,0,1,1,100,57.31692608213053,21.966676083393402,1,1,0,1
222,61,50,-4.96,19.22105187550187,-7.586826627142727,1.05,0,53,0,1,0,0,1,1,100,43.59938045730814,4.424952804046121,1,1,0,1
222,62,50,-4.96,14.336450919508934,-16.888137670513245,1.05,0,53,0,1,0,0,1,1,100,62.129693024326116,24.44969136966393,1,1,0,1
222,63,50,-4.96,17.280539087951183,-14.591312388889492,1.05,0,53,0,1,0,0,1,1,100,64.01409223210067,11.3971041678451,1,1,0,1
223,64,155,31.79,73.83311557024717,-21.104780045803622,1.05,0,182,0,1,0,0,1,1,100,149.8376133411657,41.138961894565725,1,1,0,1
223,65,155,31.79,56.696998912841075,-42.691848226822906,1.05,0,182,0,1,0,0,1,1,100,187.27411069045775,104.00569108382334,1,1,0,1
223,66,350,71.78,127.14057879522443,-39.26609076675959,1.05,0,412,0,1,0,0,1,1,100,331.59539942629635,79.92939526913688,1,1,0,1
301,67,10,0,9.83732067188248,-2.3518658224493265,1.035,0,24,0,1,0,0,1,1,100,24.658474310301244,20.294913882417607,1,1,0,1
301,68,10,0,7.252356640994549,-2.6600858056917787,1.035,0,24,0,1,0,0,1,1,100,17.72310872003436,13.895750697832556,1,1,0,1
301,69,76,14.1,31.971718438435346,-39.38259477214888,1.035,0,89,0,1,0,0,1,1,100,96.32724428307266,48.074933603666736,1,1,0,1
301,70,76,14.1,36.56902618193999,-5.868669800925993,1.035,0,89,0,1,0,0,1,1,100,61.74490776304155,37.94805478253036,1,1,0,1
302,71,10,0,11.756053895689547,-0.616061809938401,1.035,0,24,0,1,0,0,1,1,100,23.31445648521185,19.19370157657191,1,1,0,1
302,72,10,0,10.506449373904616,1.9678088533692062,1.035,0,24,0,1,0,0,1,1,100,22.150644292123616,17.326677009183914,1,1,0,1
302,73,76,7,35.41541389748454,-31.25585338519886,1.035,0,89,0,1,0,0,1,1,100,55.8056787436828,2.5903562342748003,1,1,0,1
302,74,76,7,36.17850279388949,-19.7973616127856,1.035,0,89,0,1,0,0,1,1,100,84.71446059849113,17.283969815038148,1,1,0,1
307,75,80,17.2,77.14837193302812,34.16983010899278,1.025,0,118,0,1,0,0,1,1,100,111.78780993912369,48.939115012763075,1,1,0,1
307,76,80,17.2,60.14251138921828,-9.150769047439091,1.025,0,118,0,1,0,0,1,1,100,76.85874942690134,2.3677362333775522,1,1,0,1
307,77,80,17.2,70.42841175198555,-7.433265840634718,1.025,0,118,0,1,0,0,1,1,100,110.37695335689932,43.99826677516103,1,1,0,1
313,78,95.1,40.7,103.3448623791337,12.126002579927444,1.02,0,232,0,1,0,0,1,1,100,148.18070188895797,33.79070330416458,1,1,0,1
313,79,95.1,40.7,101.8626814223826,22.38800697773695,1.02,0,232,0,1,0,0,1,1,100,220.21038375580682,105.73572724138616,1,1,0,1
313,80,95.1,40.7,100.20540177077055,31.700527992099524,1.02,0,232,0,1,0,0,1,1,100,179.86132983197456,46.21314665739422,1,1,0,1
314,81,0,13.68,181.40365880914032,-47.37279570894316,0.98,0,100,0,1,0,0,1,1,100,0.0,0.0,1,1,0,1
315,82,12,0,6.942459284048528,-0.16142655434086794,1.014,0,14,0,1,0,0,1,1,100,14.903885379061105,7.834274941161278,1,1,0,1
315,83,12,0,4.217532925587147,-2.5678804448805757,1.014,0,14,0,1,0,0,1,1,100,13.060006741248072,4.9645311428234,1,1,0,1
315,84,12,0,5.985450477898121,1.7559668669477109,1.014,0,14,0,1,0,0,1,1,100,13.172229092381896,1.954766712896527,1,1,0,1
315,85,12,0,6.302228967379779,-1.4289798103272915,1.014,0,14,0,1,0,0,1,1,100,11.044709922373293,4.302121679037809,1,1,0,1
315,86,12,0,5.964079236611724,0.2216852867044512,1.014,0,14,0,1,0,0,1,1,100,10.270811533369123,0.5650604075000828,1,1,0,1
315,87,155,0.048,83.77384852617979,-67.20596355944872,1.014,0,182,0,1,0,0,1,1,100,181.79120723553933,100.67830620122841,1,1,0,1
316,88,155,25.22,94.5092665925622,-43.22881567152217,1.017,0,182,0,1,0,0,1,1,100,111.39249602891503,35.02951551409204,1,1,0,1
318,89,400,137.4,170.42801219038662,-104.915923292283,1.05,0,471,0,1,0,0,1,1,100,449.8978132382035,169.3469725223258,1,1,0,1
321,90,400,108.2,242.39734787493944,65.85131323896348,1.05,0,471,0,1,0,0,1,1,100,419.56563975661993,151.7627775296569,1,1,0,1
322,91,50,-4.96,14.732537311315536,-18.64699182258919,1.05,0,53,0,1,0,0,1,1,100,45.24644951336086,43.95189422645408,1,1,0,1
322,92,50,-4.96,20.608771150559186,-5.831048722658309,1.05,0,53,0,1,0,0,1,1,100,53.02618065383285,7.193497521802783,1,1,0,1
322,93,50,-4.96,16.001631467044355,-9.943394527956844,1.05,0,53,0,1,0,0,1,1,100,64.62744898395614,28.798922211863115,1,1,0,1
322,94,50,-4.96,14.369622851163149,-8.258771837782115,1.05,0,53,0,1,0,0,1,1,100,52.39449467044324,27.440399506015297,1,1,0,1
322,95,50,-4.96,18.96873871088028,-6.05387982111424,1.05,0,53,0,1,0,0,1,1,100,40.97586432239041,27.77155405195599,1,1,0,1
322,96,50,-4.96,15.793581932783127,-10.106127979978918,1.05,0,53,0,1,0,0,1,1,100,64.6164032490924,26.892318106256425,1,1,0,1
323,97,155,31.79,77.95760383829474,-56.394410660490394,1.05,0,182,0,1,0,0,1,1,100,140.81076461891644,23.94134127361467,1,1,0,1
323,98,155,31.79,70.89464661851525,-26.501624735072255,1.05,0,182,0,1,0,0,1,1,100,132.2632816915866,31.326595314790026,1,1,0,1
323,99,350,71.78,166.16649268660694,-36.282927265856415,1.05,0,412,0,1,0,0,1,1,100,281.0527664399706,53.17208352731541,1,1,0,1
0 / END OF GENERATOR DATA, BEGIN BRANCH DATA
101,102,1,0.003,0.014,0.461,210.0,231.6,240.0,0,0,0,0,1,1,0,1,1
101,103,1,0.055,0.211,0.057,210.0,249.6,264.0,0,0,0,0,1,1,0,1,1
101,105,1,0.022,0.085,0.023,210.0,249.6,264.0,0,0,0,0,1,1,0,1,1
102,104,1,0.033,0.127,0.034,210.0,249.6,264.0,0,0,0,0,1,1,0,1,1
102,106,1,0.05,0.192,0.052,210.0,249.6,264.0,0,0,0,0,1,1,0,1,1
103,109,1,0.031,0.119,0.032,210.0,249.6,264.0,0,0,0,0,1,1,0,1,1
104,109,1,0.027,0.104,0.028,210.0,249.6,264.0,0,0,0,0,1,1,0,1,1
105,110,1,0.023,0.088,0.024,210.0,249.6,264.0,0,0,0,0,1,1,0,1,1
106,110,1,0.014,0.061,2.459,210.0,231.6,240.0,0,0,0,0,1,1,0,1,1
107,108,1,0.016,0.061,0.017,210.0,249.6,264.0,0,0,0,0,1,1,0,1,1
107,203,1,0.042,0.161,0.044,210.0,249.6,264.0,0,0,0,0,1,1,0,1,1
108,109,1,0.043,0.165,0.045,210.0,249.6,264.0,0,0,0,0,1,1,0,1,1
108,110,1,0.043,0.165,0.045,210.0,249.6,264.0,0,0,0,0,1,1,0,1,1
111,113,1,0.006,0.048,0.1,600.0,720.0,750.0,0,0,0,0,1,1,0,1,1
111,114,1,0.005,0.042,0.088,600.0,720.0,750.0,0,0,0,0,1,1,0,1,1
112,113,1,0.006,0.048,0.1,600.0,720.0,750.0,0,0,0,0,1,1,0,1,1
112,123,1,0.012,0.097,0.203,600.0,720.0,750.0,0,0,0,0,1,1,0,1,1
113,123,1,0.011,0.087,0.182,600.0,720.0,750.0,0,0,0,0,1,1,0,1,1
113,215,1,0.01,0.075,0.158,600.0,720.0,750.0,0,0,0,0,1,1,0,1,1
114,116,1,0.005,0.059,0.082,600.0,720.0,750.0,0,0,0,0,1,1,0,1,1
115,116,1,0.002,0.017,0.036,600.0,720.0,750.0,0,0,0,0,1,1,0,1,1
115,121,1,0.006,0.049,0.103,600.0,720.0,750.0,0,0,0,0,1,1,0,1,1
115,121,2,0.006,0.049,0.103,600.0,720.0,750.0,0,0,0,0,1,1,0,1,1
115,124,1,0.007,0.052,0.109,600.0,720.0,750.0,0,0,0,0,1,1,0,1,1
116,117,1,0.003,0.026,0.055,600.0,720.0,750.0,0,0,0,0,1,1,0,1,1
116,119,1,0.003,0.023,0.049,600.0,720.0,750.0,0,0,0,0,1,1,0,1,1
117,118,1,0.002,0.014,0.03,600.0,720.0,750.0,0,0,0,0,1,1,0,1,1
117,122,1,0.014,0.105,0.221,600.0,720.0,750.0,0,0,0,0,1,1,0,1,1
118,121,1,0.003,0.026,0.055,600.0,720.0,750.0,0,0,0,0,1,1,0,1,1
118,121,2,0.003,0.026,0.055,600.0,720.0,750.0,0,0,0,0,1,1,0,1,1
119,120,1,0.005,0.04,0.083,600.0,720.0,750.0,0,0,0,0,1,1,0,1,1
119,120,2,0.005,0.04,0.083,600.0,720.0,750.0,0,0,0,0,1,1,0,1,1
120,123,1,0.003,0.022,0.046,600.0,720.0,750.0,0,0,0,0,1,1,0,1,1
120,123,2,0.003,0.022,0.046,600.0,720.0,750.0,0,0,0,0,1,1,0,1,1
121,122,1,0.009,0.068,0.142,600.0,720.0,750.0,0,0,0,0,1,1,0,1,1
123,217,1,0.01,0.074,0.155,600.0,720.0,750.0,0,0,0,0,1,1,0,1,1
201,202,1,0.003,0.014,0.461,210.0,231.6,240.0,0,0,0,0,1,1,0,1,1
201,203,1,0.055,0.211,0.057,210.0,249.6,264.0,0,0,0,0,1,1,0,1,1
201,205,1,0.022,0.085,0.023,210.0,249.6,264.0,0,0,0,0,1,1,0,1,1
202,204,1,0.033,0.127,0.034,210.0,249.6,264.0,0,0,0,0,1,1,0,1,1
202,206,1,0.05,0.192,0.052,210.0,249.6,264.0,0,0,0,0,1,1,0,1,1
203,209,1,0.031,0.119,0.032,210.0,249.6,264.0,0,0,0,0,1,1,0,1,1
204,209,1,0.027,0.104,0.028,210.0,249.6,264.0,0,0,0,0,1,1,0,1,1
205,210,1,0.023,0.088,0.024,210.0,249.6,264.0,0,0,0,0,1,1,0,1,1
206,210,1,0.014,0.061,2.459,210.0,231.6,240.0,0,0,0,0,1,1,0,1,1
207,208,1,0.016,0.061,0.017,210.0,249.6,264.0,0,0,0,0,1,1,0,1,1
208,209,1,0.043,0.165,0.045,210.0,249.6,264.0,0,0,0,0,1,1,0,1,1
208,210,1,0.043,0.165,0.045,210.0,249.6,264.0,0,0,0,0,1,1,0,1,1
211,213,1,0.006,0.048,0.1,600.0,720.0,750.0,0,0,0,0,1,1,0,1,1
211,214,1,0.005,0.042,0.088,600.0,720.0,750.0,0,0,0,0,1,1,0,1,1
212,213,1,0.006,0.048,0.1,600.0,720.0,750.0,0,0,0,0,1,1,0,1,1
212,223,1,0.012,0.097,0.203,600.0,720.0,750.0,0,0,0,0,1,1,0,1,1
213,223,1,0.011,0.087,0.182,600.0,720.0,750.0,0,0,0,0,1,1,0,1,1
214,216,1,0.005,0.059,0.082,600.0,720.0,750.0,0,0,0,0,1,1,0,1,1
215,216,1,0.002,0.017,0.036,600.0,720.0,750.0,0,0,0,0,1,1,0,1,1
215,221,1,0.006,0.049,0.103,600.0,720.0,750.0,0,0,0,0,1,1,0,1,1
215,221,2,0.006,0.049,0.103,600.0,720.0,750.0,0,0,0,0,1,1,0,1,1
215,224,1,0.007,0.052,0.109,600.0,720.0,750.0,0,0,0,0,1,1,0,1,1
216,217,1,0.003,0.026,0.055,600.0,720.0,750.0,0,0,0,0,1,1,0,1,1
216,219,1,0.003,0.023,0.049,600.0,720.0,750.0,0,0,0,0,1,1,0,1,1
217,218,1,0.002,0.014,0.03,600.0,720.0,750.0,0,0,0,0,1,1,0,1,1
217,222,1,0.014,0.105,0.221,600.0,720.0,750.0,0,0,0,0,1,1,0,1,1
218,221,1,0.003,0.026,0.055,600.0,720.0,750.0,0,0,0,0,1,1,0,1,1
218,221,2,0.003,0.026,0.055,600.0,720.0,750.0,0,0,0,0,1,1,0,1,1
219,220,1,0.005,0.04,0.083,600.0,720.0,750.0,0,0,0,0,1,1,0,1,1
219,220,2,0.005,0.04,0.083,600.0,720.0,750.0,0,0,0,0,1,1,0,1,1
220,223,1,0.003,0.022,0.046,600.0,720.0,750.0,0,0,0,0,1,1,0,1,1
220,223,2,0.003,0.022,0.046,600.0,720.0,750.0,0,0,0,0,1,1,0,1,1
221,222,1,0.009,0.068,0.142,600.0,720.0,750.0,0,0,0,0,1,1,0,1,1
301,302,1,0.003,0.014,0.461,210.0,231.6,240.0,0,0,0,0,1,1,0,1,1
301,303,1,0.055,0.211,0.057,210.0,249.6,264.0,0,0,0,0,1,1,0,1,1
301,305,1,0.022,0.085,0.023,210.0,249.6,264.0,0,0,0,0,1,1,0,1,1
302,304,1,0.033,0.127,0.034,210.0,249.6,264.0,0,0,0,0,1,1,0,1,1
302,306,1,0.05,0.192,0.052,210.0,249.6,264.0,0,0,0,0,1,1,0,1,1
303,309,1,0.031,0.119,0.032,210.0,249.6,264.0,0,0,0,0,1,1,0,1,1
304,309,1,0.027,0.104,0.028,210.0,249.6,264.0,0,0,0,0,1,1,0,1,1
305,310,1,0.023,0.088,0.024,210.0,249.6,264.0,0,0,0,0,1,1,0,1,1
306,310,1,0.014,0.061,2.459,210.0,231.6,240.0,0,0,0,0,1,1,0,1,1
307,308,1,0.016,0.061,0.017,210.0,249.6,264.0,0,0,0,0,1,1,0,1,1
308,309,1,0.043,0.165,0.045,210.0,249.6,264.0,0,0,0,0,1,1,0,1,1
308,310,1,0.043,0.165,0.045,210.0,249.6,264.0,0,0,0,0,1,1,0,1,1
311,313,1,0.006,0.048,0.1,600.0,720.0,750.0,0,0,0,0,1,1,0,1,1
311,314,1,0.005,0.042,0.088,600.0,720.0,750.0,0,0,0,0,1,1,0,1,1
312,313,1,0.006,0.048,0.1,600.0,720.0,750.0,0,0,0,0,1,1,0,1,1
312,323,1,0.012,0.097,0.203,600.0,720.0,750.0,0,0,0,0,1,1,0,1,1
313,323,1,0.011,0.087,0.182,600.0,720.0,750.0,0,0,0,0,1,1,0,1,1
314,316,1,0.005,0.059,0.082,600.0,720.0,750.0,0,0,0,0,1,1,0,1,1
315,316,1,0.002,0.017,0.036,600.0,720.0,750.0,0,0,0,0,1,1,0,1,1
315,321,1,0.006,0.049,0.103,600.0,720.0,750.0,0,0,0,0,1,1,0,1,1
315,321,2,0.006,0.049,0.103,600.0,720.0,750.0,0,0,0,0,1,1,0,1,1
315,324,1,0.007,0.052,0.109,600.0,720.0,750.0,0,0,0,0,1,1,0,1,1
316,317,1,0.003,0.026,0.055,600.0,720.0,750.0,0,0,0,0,1,1,0,1,1
316,319,1,0.003,0.023,0.049,600.0,720.0,750.0,0,0,0,0,1,1,0,1,1
317,318,1,0.002,0.014,0.03,600.0,720.0,750.0,0,0,0,0,1,1,0,1,1
317,322,1,0.014,0.105,0.221,600.0,720.0,750.0,0,0,0,0,1,1,0,1,1
318,223,1,0.013,0.104,0.218,600.0,720.0,750.0,0,0,0,0,1,1,0,1,1
318,321,1,0.003,0.026,0.055,600.0,720.0,750.0,0,0,0,0,1,1,0,1,1
318,321,2,0.003,0.026,0.055,600.0,720.0,750.0,0,0,0,0,1,1,0,1,1
319,320,1,0.005,0.04,0.083,600.0,720.0,750.0,0,0,0,0,1,1,0,1,1
319,320,2,0.005,0.04,0.083,600.0,720.0,750.0,0,0,0,0,1,1,0,1,1
320,323,1,0.003,0.022,0.046,600.0,720.0,750.0,0,0,0,0,1,1,0,1,1
320,323,2,0.003,0.022,0.046,600.0,720.0,750.0,0,0,0,0,1,1,0,1,1
321,322,1,0.009,0.068,0.142,600.0,720.0,750.0,0,0,0,0,1,1,0,1,1
323,325,1,0,0.009,0,866.4,1071.6,1071.6,0,0,0,0,1,1,0,1,1
325,121,1,0.012,0.097,0.203,600.0,720.0,750.0,0,0,0,0,1,1,0,1,1
0 / END OF BRANCH DATA, BEGIN TRANSFORMER DATA
  103 ,  124 , 0,  1 , 1, 1, 1, 0, 0, 2, '            ',  1 , 1, 1
   0.002000 ,  0.084000 ,  100.000000
   1.015000 , 0,  0.000000 ,  400.000000 ,  510.000000 ,  600.000000 , 0, 0,  1.10 ,  0.90 ,  1.10 ,  0.90 , 33, 0, 0, 0
   1.000000, 0
  109 ,  111 , 0,  1 , 1, 1, 1, 0, 0, 2, '            ',  1 , 1, 1
   0.002000 ,  0.084000 ,  100.000000
   1.030000 , 0,  0.000000 ,  400.000000 ,  510.000000 ,  600.000000 , 0, 0,  1.10 ,  0.90 ,  1.10 ,  0.90 , 33, 0, 0, 0
   1.000000, 0
  109 ,  112 , 0,  1 , 1, 1, 1, 0, 0, 2, '            ',  1 , 1, 1
   0.002000 ,  0.084000 ,  100.000000
   1.030000 , 0,  0.000000 ,  400.000000 ,  510.000000 ,  600.000000 , 0, 0,  1.10 ,  0.90 ,  1.10 ,  0.90 , 33, 0, 0, 0
   1.000000, 0
  110 ,  111 , 0,  1 , 1, 1, 1, 0, 0, 2, '            ',  1 , 1, 1
   0.002000 ,  0.084000 ,  100.000000
   1.015000 , 0,  0.000000 ,  400.000000 ,  510.000000 ,  600.000000 , 0, 0,  1.10 ,  0.90 ,  1.10 ,  0.90 , 33, 0, 0, 0
   1.000000, 0
  110 ,  112 , 0,  1 , 1, 1, 1, 0, 0, 2, '            ',  1 , 1, 1
   0.002000 ,  0.084000 ,  100.000000
   1.015000 , 0,  0.000000 ,  400.000000 ,  510.000000 ,  600.000000 , 0, 0,  1.10 ,  0.90 ,  1.10 ,  0.90 , 33, 0, 0, 0
   1.000000, 0
  203 ,  224 , 0,  1 , 1, 1, 1, 0, 0, 2, '            ',  1 , 1, 1
   0.002000 ,  0.084000 ,  100.000000
   1.015000 , 0,  0.000000 ,  400.000000 ,  510.000000 ,  600.000000 , 0, 0,  1.10 ,  0.90 ,  1.10 ,  0.90 , 33, 0, 0, 0
   1.000000, 0
  209 ,  211 , 0,  1 , 1, 1, 1, 0, 0, 2, '            ',  1 , 1, 1
   0.002000 ,  0.084000 ,  100.000000
   1.030000 , 0,  0.000000 ,  400.000000 ,  510.000000 ,  600.000000 , 0, 0,  1.10 ,  0.90 ,  1.10 ,  0.90 , 33, 0, 0, 0
   1.000000, 0
  209 ,  212 , 0,  1 , 1, 1, 1, 0, 0, 2, '            ',  1 , 1, 1
   0.002000 ,  0.084000 ,  100.000000
   1.030000 , 0,  0.000000 ,  400.000000 ,  510.000000 ,  600.000000 , 0, 0,  1.10 ,  0.90 ,  1.10 ,  0.90 , 33, 0, 0, 0
   1.000000, 0
  210 ,  211 , 0,  1 , 1, 1, 1, 0, 0, 2, '            ',  1 , 1, 1
   0.002000 ,  0.084000 ,  100.000000
   1.015000 , 0,  0.000000 ,  400.000000 ,  510.000000 ,  600.000000 , 0, 0,  1.10 ,  0.90 ,  1.10 ,  0.90 , 33, 0, 0, 0
   1.000000, 0
  210 ,  212 , 0,  1 , 1, 1, 1, 0, 0, 2, '            ',  1 , 1, 1
   0.002000 ,  0.084000 ,  100.000000
   1.015000 , 0,  0.000000 ,  400.000000 ,  510.000000 ,  600.000000 , 0, 0,  1.10 ,  0.90 ,  1.10 ,  0.90 , 33, 0, 0, 0
   1.000000, 0
  303 ,  324 , 0,  1 , 1, 1, 1, 0, 0, 2, '            ',  1 , 1, 1
   0.002000 ,  0.084000 ,  100.000000
   1.015000 , 0,  0.000000 ,  400.000000 ,  510.000000 ,  600.000000 , 0, 0,  1.10 ,  0.90 ,  1.10 ,  0.90 , 33, 0, 0, 0
   1.000000, 0
  309 ,  311 , 0,  1 , 1, 1, 1, 0, 0, 2, '            ',  1 , 1, 1
   0.002000 ,  0.084000 ,  100.000000
   1.030000 , 0,  0.000000 ,  400.000000 ,  510.000000 ,  600.000000 , 0, 0,  1.10 ,  0.90 ,  1.10 ,  0.90 , 33, 0, 0, 0
   1.000000, 0
  309 ,  312 , 0,  1 , 1, 1, 1, 0, 0, 2, '            ',  1 , 1, 1
   0.002000 ,  0.084000 ,  100.000000
   1.030000 , 0,  0.000000 ,  400.000000 ,  510.000000 ,  600.000000 , 0, 0,  1.10 ,  0.90 ,  1.10 ,  0.90 , 33, 0, 0, 0
   1.000000, 0
  310 ,  311 , 0,  1 , 1, 1, 1, 0, 0, 2, '            ',  1 , 1, 1
   0.002000 ,  0.084000 ,  100.000000
   1.015000 , 0,  0.000000 ,  400.000000 ,  510.000000 ,  600.000000 , 0, 0,  1.10 ,  0.90 ,  1.10 ,  0.90 , 33, 0, 0, 0
   1.000000, 0
  310 ,  312 , 0,  1 , 1, 1, 1, 0, 0, 2, '            ',  1 , 1, 1
   0.002000 ,  0.084000 ,  100.000000
   1.015000 , 0,  0.000000 ,  400.000000 ,  510.000000 ,  600.000000 , 0, 0,  1.10 ,  0.90 ,  1.10 ,  0.90 , 33, 0, 0, 0
   1.000000, 0
0 / END OF TRANSFORMER DATA, BEGIN AREA DATA
0 / END OF AREA DATA, BEGIN TWO-TERMINAL DC DATA
0 / END OF TWO-TERMINAL DC DATA, BEGIN VSC DC LINE DATA
0 / END OF VSC DC LINE DATA, BEGIN SWITCHED SHUNT DATA
0 / END OF SWITCHED SHUNT DATA, BEGIN IMPEDANCE CORRECTION DATA
0 / END OF IMPEDANCE CORRECTION DATA, BEGIN MULTI-TERMINAL DC DATA
0 / END OF MULTI-TERMINAL DC DATA, BEGIN MULTI-SECTION LINE DATA
0 / END OF MULTI-SECTION LINE DATA, BEGIN ZONE DATA
0 / END OF ZONE DATA, BEGIN INTER-AREA TRANSFER DATA
0 / END OF INTER-AREA TRANSFER DATA, BEGIN OWNER DATA
0 / END OF OWNER DATA, BEGIN FACTS CONTROL DEVICE DATA
0 / END OF FACTS CONTROL DEVICE DATA
0 / END OF SWITCHED SHUNT DATA, BEGIN GNE DATA
0 / END OF GNE DATA, BEGIN INDUCTION MACHINE DATA
0 / END OF INDUCTION MACHINE DATA
Q 
